<?xml version="1.0" encoding="UTF-8"?>

<!-- generated on Sun 25 Oct 2020 20:50:41 IST by Eclipse SUMO GUI Version 1.7.0
-->

<configuration xmlns:xsi="http://www.w3.org/2001/XMLSchema-instance" xsi:noNamespaceSchemaLocation="http://sumo.dlr.de/xsd/sumoConfiguration.xsd">

    <input>
        <net-file value="/home/ashwin/acads_ws/CS637/CS637/sumo_nets/demand_test.net.xml"/>
        <route-files value="/home/ashwin/acads_ws/CS637/CS637/sumo_nets/demand_test.rou.xml"/>
    </input>

</configuration>
