<?xml version="1.0" encoding="UTF-8"?>

<!-- generated on Sun 25 Oct 2020 20:49:27 IST by Eclipse SUMO netedit Version 1.7.0
<configuration xmlns:xsi="http://www.w3.org/2001/XMLSchema-instance" xsi:noNamespaceSchemaLocation="http://sumo.dlr.de/xsd/netconvertConfiguration.xsd">

    <processing>
        <offset.disable-normalization value="true"/>
    </processing>

    <junctions>
        <no-turnarounds value="true"/>
    </junctions>

    <netedit>
        <route-files value="/home/ashwin/acads_ws/CS637/CS637/sumo_nets/demand_test.rou.xml"/>
    </netedit>

    <report>
        <aggregate-warnings value="5"/>
    </report>

</configuration>
-->

<routes xmlns:xsi="http://www.w3.org/2001/XMLSchema-instance" xsi:noNamespaceSchemaLocation="http://sumo.dlr.de/xsd/routes_file.xsd">
    <route edges="gneE0 gneE2" color="red" id="route_0"/>
    <route edges="gneE0 gneE3" color="cyan" id="route_1"/>
    <route edges="gneE1 gneE2" color="128,0,128" id="route_2"/>
    <route edges="gneE1 gneE3" color="yellow" id="route_3"/>
    <vehicle id="vehicle_0" depart="0.00" route="route_0"/>
    <vehicle id="vehicle_1" depart="0.00" route="route_1"/>
    <vehicle id="vehicle_2" depart="0.00" route="route_2"/>
    <vehicle id="vehicle_3" depart="0.00" route="route_3"/>
</routes>
