<?xml version="1.0" encoding="UTF-8"?>

<!-- generated on Sun 25 Oct 2020 20:49:35 IST by Eclipse SUMO netedit Version 1.7.0
<configuration xmlns:xsi="http://www.w3.org/2001/XMLSchema-instance" xsi:noNamespaceSchemaLocation="http://sumo.dlr.de/xsd/netconvertConfiguration.xsd">

    <output>
        <output-file value="/home/ashwin/acads_ws/CS637/CS637/sumo_nets/demand_test.net.xml"/>
    </output>

    <processing>
        <offset.disable-normalization value="true"/>
    </processing>

    <junctions>
        <no-turnarounds value="true"/>
    </junctions>

    <netedit>
        <route-files value="/home/ashwin/acads_ws/CS637/CS637/sumo_nets/demand_test.rou.xml"/>
    </netedit>

    <report>
        <aggregate-warnings value="5"/>
    </report>

</configuration>
-->

<net version="1.6" junctionCornerDetail="5" limitTurnSpeed="5.50" xmlns:xsi="http://www.w3.org/2001/XMLSchema-instance" xsi:noNamespaceSchemaLocation="http://sumo.dlr.de/xsd/net_file.xsd">

    <location netOffset="0.00,0.00" convBoundary="-100.00,-100.00,100.00,100.00" origBoundary="10000000000.00,10000000000.00,-10000000000.00,-10000000000.00" projParameter="!"/>

    <edge id=":gneJ1_0" function="internal">
        <lane id=":gneJ1_0_0" index="0" speed="6.51" length="9.03" shape="1.60,-7.20 1.95,-4.75 3.00,-3.00 4.75,-1.95 7.20,-1.60"/>
    </edge>
    <edge id=":gneJ1_1" function="internal">
        <lane id=":gneJ1_1_0" index="0" speed="13.89" length="11.20" shape="1.60,-7.20 1.60,4.00"/>
    </edge>
    <edge id=":gneJ1_2" function="internal">
        <lane id=":gneJ1_2_0" index="0" speed="13.89" length="11.20" shape="-4.00,-1.60 7.20,-1.60"/>
    </edge>
    <edge id=":gneJ1_3" function="internal">
        <lane id=":gneJ1_3_0" index="0" speed="6.51" length="4.28" shape="-4.00,-1.60 -1.55,-1.25 0.00,-0.32"/>
    </edge>
    <edge id=":gneJ1_4" function="internal">
        <lane id=":gneJ1_4_0" index="0" speed="6.51" length="4.75" shape="0.00,-0.32 0.20,-0.20 1.25,1.55 1.60,4.00"/>
    </edge>

    <edge id="gneE0" from="gneJ0" to="gneJ1" priority="-1">
        <lane id="gneE0_0" index="0" speed="13.89" length="96.00" shape="-100.00,-1.60 -4.00,-1.60"/>
    </edge>
    <edge id="gneE1" from="gneJ2" to="gneJ1" priority="-1">
        <lane id="gneE1_0" index="0" speed="13.89" length="92.80" shape="1.60,-100.00 1.60,-7.20"/>
    </edge>
    <edge id="gneE2" from="gneJ1" to="gneJ3" priority="-1">
        <lane id="gneE2_0" index="0" speed="13.89" length="96.00" shape="1.60,4.00 1.60,100.00"/>
    </edge>
    <edge id="gneE3" from="gneJ1" to="gneJ4" priority="-1">
        <lane id="gneE3_0" index="0" speed="13.89" length="92.80" shape="7.20,-1.60 100.00,-1.60"/>
    </edge>

    <junction id="gneJ0" type="dead_end" x="-100.00" y="0.00" incLanes="" intLanes="" shape="-100.00,0.00 -100.00,-3.20"/>
    <junction id="gneJ1" type="priority" x="0.00" y="0.00" incLanes="gneE1_0 gneE0_0" intLanes=":gneJ1_0_0 :gneJ1_1_0 :gneJ1_2_0 :gneJ1_4_0" shape="0.00,4.00 3.20,4.00 3.64,1.78 4.20,1.00 4.98,0.44 5.98,0.11 7.20,0.00 7.20,-3.20 4.98,-3.64 4.20,-4.20 3.64,-4.98 3.31,-5.98 3.20,-7.20 0.00,-7.20 -0.44,-4.98 -1.00,-4.20 -1.78,-3.64 -2.78,-3.31 -4.00,-3.20 -4.00,0.00 -1.78,0.44 -1.00,1.00 -0.44,1.78 -0.11,2.78">
        <request index="0" response="0000" foes="0100" cont="0"/>
        <request index="1" response="0000" foes="1100" cont="0"/>
        <request index="2" response="0011" foes="0011" cont="0"/>
        <request index="3" response="0010" foes="0010" cont="1"/>
    </junction>
    <junction id="gneJ2" type="dead_end" x="0.00" y="-100.00" incLanes="" intLanes="" shape="0.00,-100.00 3.20,-100.00"/>
    <junction id="gneJ3" type="dead_end" x="0.00" y="100.00" incLanes="gneE2_0" intLanes="" shape="3.20,100.00 0.00,100.00"/>
    <junction id="gneJ4" type="dead_end" x="100.00" y="0.00" incLanes="gneE3_0" intLanes="" shape="100.00,-3.20 100.00,0.00"/>

    <junction id=":gneJ1_4_0" type="internal" x="0.00" y="-0.32" incLanes=":gneJ1_3_0 gneE1_0" intLanes=":gneJ1_1_0"/>

    <connection from="gneE0" to="gneE3" fromLane="0" toLane="0" via=":gneJ1_2_0" dir="s" state="m"/>
    <connection from="gneE0" to="gneE2" fromLane="0" toLane="0" via=":gneJ1_3_0" dir="l" state="m"/>
    <connection from="gneE1" to="gneE3" fromLane="0" toLane="0" via=":gneJ1_0_0" dir="r" state="M"/>
    <connection from="gneE1" to="gneE2" fromLane="0" toLane="0" via=":gneJ1_1_0" dir="s" state="M"/>

    <connection from=":gneJ1_0" to="gneE3" fromLane="0" toLane="0" dir="r" state="M"/>
    <connection from=":gneJ1_1" to="gneE2" fromLane="0" toLane="0" dir="s" state="M"/>
    <connection from=":gneJ1_2" to="gneE3" fromLane="0" toLane="0" dir="s" state="M"/>
    <connection from=":gneJ1_3" to="gneE2" fromLane="0" toLane="0" via=":gneJ1_4_0" dir="l" state="m"/>
    <connection from=":gneJ1_4" to="gneE2" fromLane="0" toLane="0" dir="l" state="M"/>

</net>
