<?xml version="1.0" encoding="UTF-8"?>

<!-- generated on Monday 30 November 2020 08:32:49 PM IST by Eclipse SUMO netedit Version 1.7.0
<configuration xmlns:xsi="http://www.w3.org/2001/XMLSchema-instance" xsi:noNamespaceSchemaLocation="http://sumo.dlr.de/xsd/netconvertConfiguration.xsd">

    <input>
        <sumo-net-file value="/home/kshitij/CS637/SUMO/Intersection/intersection_refined.net.xml"/>
    </input>

    <output>
        <output-file value="/home/kshitij/CS637/SUMO/Intersection/intersection_refined.net.xml"/>
    </output>

    <processing>
        <geometry.min-radius.fix.railways value="false"/>
        <geometry.max-grade.fix value="false"/>
        <offset.disable-normalization value="true"/>
        <lefthand value="false"/>
    </processing>

    <junctions>
        <no-turnarounds value="true"/>
        <junctions.corner-detail value="5"/>
        <junctions.limit-turn-speed value="5.5"/>
        <rectangular-lane-cut value="false"/>
    </junctions>

    <pedestrian>
        <walkingareas value="false"/>
    </pedestrian>

    <report>
        <aggregate-warnings value="5"/>
    </report>

</configuration>
-->

<net version="1.6" junctionCornerDetail="5" limitTurnSpeed="5.50" xmlns:xsi="http://www.w3.org/2001/XMLSchema-instance" xsi:noNamespaceSchemaLocation="http://sumo.dlr.de/xsd/net_file.xsd">

    <location netOffset="0.00,0.00" convBoundary="-26.00,-26.00,26.00,26.00" origBoundary="-10000000000.00,-10000000000.00,10000000000.00,10000000000.00" projParameter="!"/>

    <edge id=":gneJ0_0" function="internal">
        <lane id=":gneJ0_0_0" index="0" speed="13.89" length="11.20" shape="-11.60,-6.00 -11.60,-17.20"/>
    </edge>
    <edge id=":gneJ0_1" function="internal">
        <lane id=":gneJ0_1_0" index="0" speed="6.51" length="4.28" shape="-11.60,-6.00 -11.25,-8.45 -10.32,-10.00"/>
    </edge>
    <edge id=":gneJ0_4" function="internal">
        <lane id=":gneJ0_4_0" index="0" speed="6.51" length="4.75" shape="-10.32,-10.00 -10.20,-10.20 -8.45,-11.25 -6.00,-11.60"/>
    </edge>
    <edge id=":gneJ0_2" function="internal">
        <lane id=":gneJ0_2_0" index="0" speed="6.51" length="9.03" shape="-17.20,-11.60 -14.75,-11.95 -13.00,-13.00 -11.95,-14.75 -11.60,-17.20"/>
    </edge>
    <edge id=":gneJ0_3" function="internal">
        <lane id=":gneJ0_3_0" index="0" speed="13.89" length="11.20" shape="-17.20,-11.60 -6.00,-11.60"/>
    </edge>
    <edge id=":gneJ1_0" function="internal">
        <lane id=":gneJ1_0_0" index="0" speed="6.51" length="9.03" shape="11.60,-17.20 11.95,-14.75 13.00,-13.00 14.75,-11.95 17.20,-11.60"/>
    </edge>
    <edge id=":gneJ1_1" function="internal">
        <lane id=":gneJ1_1_0" index="0" speed="13.89" length="11.20" shape="11.60,-17.20 11.60,-6.00"/>
    </edge>
    <edge id=":gneJ1_2" function="internal">
        <lane id=":gneJ1_2_0" index="0" speed="13.89" length="11.20" shape="6.00,-11.60 17.20,-11.60"/>
    </edge>
    <edge id=":gneJ1_3" function="internal">
        <lane id=":gneJ1_3_0" index="0" speed="6.51" length="4.28" shape="6.00,-11.60 8.45,-11.25 10.00,-10.32"/>
    </edge>
    <edge id=":gneJ1_4" function="internal">
        <lane id=":gneJ1_4_0" index="0" speed="6.51" length="4.75" shape="10.00,-10.32 10.20,-10.20 11.25,-8.45 11.60,-6.00"/>
    </edge>
    <edge id=":gneJ2_0" function="internal">
        <lane id=":gneJ2_0_0" index="0" speed="6.51" length="9.03" shape="17.20,11.60 14.75,11.95 13.00,13.00 11.95,14.75 11.60,17.20"/>
    </edge>
    <edge id=":gneJ2_1" function="internal">
        <lane id=":gneJ2_1_0" index="0" speed="13.89" length="11.20" shape="17.20,11.60 6.00,11.60"/>
    </edge>
    <edge id=":gneJ2_2" function="internal">
        <lane id=":gneJ2_2_0" index="0" speed="13.89" length="11.20" shape="11.60,6.00 11.60,17.20"/>
    </edge>
    <edge id=":gneJ2_3" function="internal">
        <lane id=":gneJ2_3_0" index="0" speed="6.51" length="4.28" shape="11.60,6.00 11.25,8.45 10.32,10.00"/>
    </edge>
    <edge id=":gneJ2_4" function="internal">
        <lane id=":gneJ2_4_0" index="0" speed="6.51" length="4.75" shape="10.32,10.00 10.20,10.20 8.45,11.25 6.00,11.60"/>
    </edge>
    <edge id=":gneJ3_0" function="internal">
        <lane id=":gneJ3_0_0" index="0" speed="6.51" length="9.03" shape="-11.60,17.20 -11.95,14.75 -13.00,13.00 -14.75,11.95 -17.20,11.60"/>
    </edge>
    <edge id=":gneJ3_1" function="internal">
        <lane id=":gneJ3_1_0" index="0" speed="13.89" length="11.20" shape="-11.60,17.20 -11.60,6.00"/>
    </edge>
    <edge id=":gneJ3_2" function="internal">
        <lane id=":gneJ3_2_0" index="0" speed="13.89" length="11.20" shape="-6.00,11.60 -17.20,11.60"/>
    </edge>
    <edge id=":gneJ3_3" function="internal">
        <lane id=":gneJ3_3_0" index="0" speed="6.51" length="4.28" shape="-6.00,11.60 -8.45,11.25 -10.00,10.32"/>
    </edge>
    <edge id=":gneJ3_4" function="internal">
        <lane id=":gneJ3_4_0" index="0" speed="6.51" length="4.75" shape="-10.00,10.32 -10.20,10.20 -11.25,8.45 -11.60,6.00"/>
    </edge>

    <edge id="gneE0" from="gneJ0" to="gneJ1" priority="-1">
        <lane id="gneE0_0" index="0" speed="13.89" length="12.00" shape="-6.00,-11.60 6.00,-11.60"/>
    </edge>
    <edge id="gneE1" from="gneJ1" to="gneJ2" priority="-1">
        <lane id="gneE1_0" index="0" speed="13.89" length="12.00" shape="11.60,-6.00 11.60,6.00"/>
    </edge>
    <edge id="gneE10" from="gneJ2" to="gneJ10" priority="-1">
        <lane id="gneE10_0" index="0" speed="13.89" length="8.80" shape="11.60,17.20 11.60,26.00"/>
    </edge>
    <edge id="gneE11" from="gneJ0" to="gneJ11" priority="-1">
        <lane id="gneE11_0" index="0" speed="13.89" length="8.80" shape="-11.60,-17.20 -11.60,-26.00"/>
    </edge>
    <edge id="gneE2" from="gneJ2" to="gneJ3" priority="-1">
        <lane id="gneE2_0" index="0" speed="13.89" length="12.00" shape="6.00,11.60 -6.00,11.60"/>
    </edge>
    <edge id="gneE3" from="gneJ3" to="gneJ0" priority="-1">
        <lane id="gneE3_0" index="0" speed="13.89" length="12.00" shape="-11.60,6.00 -11.60,-6.00"/>
    </edge>
    <edge id="gneE4" from="gneJ4" to="gneJ0" priority="-1">
        <lane id="gneE4_0" index="0" speed="13.89" length="8.80" shape="-26.00,-11.60 -17.20,-11.60"/>
    </edge>
    <edge id="gneE5" from="gneJ1" to="gneJ5" priority="-1">
        <lane id="gneE5_0" index="0" speed="13.89" length="8.80" shape="17.20,-11.60 26.00,-11.60"/>
    </edge>
    <edge id="gneE6" from="gneJ6" to="gneJ2" priority="-1">
        <lane id="gneE6_0" index="0" speed="13.89" length="8.80" shape="26.00,11.60 17.20,11.60"/>
    </edge>
    <edge id="gneE7" from="gneJ3" to="gneJ7" priority="-1">
        <lane id="gneE7_0" index="0" speed="13.89" length="8.80" shape="-17.20,11.60 -26.00,11.60"/>
    </edge>
    <edge id="gneE8" from="gneJ8" to="gneJ1" priority="-1">
        <lane id="gneE8_0" index="0" speed="13.89" length="8.80" shape="11.60,-26.00 11.60,-17.20"/>
    </edge>
    <edge id="gneE9" from="gneJ9" to="gneJ3" priority="-1">
        <lane id="gneE9_0" index="0" speed="13.89" length="8.80" shape="-11.60,26.00 -11.60,17.20"/>
    </edge>

    <junction id="gneJ0" type="priority" x="-10.00" y="-10.00" incLanes="gneE3_0 gneE4_0" intLanes=":gneJ0_0_0 :gneJ0_4_0 :gneJ0_2_0 :gneJ0_3_0" shape="-13.20,-6.00 -10.00,-6.00 -9.56,-8.22 -9.00,-9.00 -8.22,-9.56 -7.22,-9.89 -6.00,-10.00 -6.00,-13.20 -8.22,-13.64 -9.00,-14.20 -9.56,-14.98 -9.89,-15.98 -10.00,-17.20 -13.20,-17.20 -13.64,-14.98 -14.20,-14.20 -14.98,-13.64 -15.98,-13.31 -17.20,-13.20 -17.20,-10.00 -14.98,-9.56 -14.20,-9.00 -13.64,-8.22 -13.31,-7.22">
        <request index="0" response="1100" foes="1100" cont="0"/>
        <request index="1" response="1000" foes="1000" cont="1"/>
        <request index="2" response="0000" foes="0001" cont="0"/>
        <request index="3" response="0000" foes="0011" cont="0"/>
    </junction>
    <junction id="gneJ1" type="priority" x="10.00" y="-10.00" incLanes="gneE8_0 gneE0_0" intLanes=":gneJ1_0_0 :gneJ1_1_0 :gneJ1_2_0 :gneJ1_4_0" shape="10.00,-6.00 13.20,-6.00 13.64,-8.22 14.20,-9.00 14.98,-9.56 15.98,-9.89 17.20,-10.00 17.20,-13.20 14.98,-13.64 14.20,-14.20 13.64,-14.98 13.31,-15.98 13.20,-17.20 10.00,-17.20 9.56,-14.98 9.00,-14.20 8.22,-13.64 7.22,-13.31 6.00,-13.20 6.00,-10.00 8.22,-9.56 9.00,-9.00 9.56,-8.22 9.89,-7.22">
        <request index="0" response="0000" foes="0100" cont="0"/>
        <request index="1" response="0000" foes="1100" cont="0"/>
        <request index="2" response="0011" foes="0011" cont="0"/>
        <request index="3" response="0010" foes="0010" cont="1"/>
    </junction>
    <junction id="gneJ10" type="dead_end" x="10.00" y="26.00" incLanes="gneE10_0" intLanes="" shape="13.20,26.00 10.00,26.00"/>
    <junction id="gneJ11" type="dead_end" x="-10.00" y="-26.00" incLanes="gneE11_0" intLanes="" shape="-13.20,-26.00 -10.00,-26.00"/>
    <junction id="gneJ2" type="priority" x="10.00" y="10.00" incLanes="gneE6_0 gneE1_0" intLanes=":gneJ2_0_0 :gneJ2_1_0 :gneJ2_2_0 :gneJ2_4_0" shape="10.00,17.20 13.20,17.20 13.64,14.98 14.20,14.20 14.98,13.64 15.98,13.31 17.20,13.20 17.20,10.00 14.98,9.56 14.20,9.00 13.64,8.22 13.31,7.22 13.20,6.00 10.00,6.00 9.56,8.22 9.00,9.00 8.22,9.56 7.22,9.89 6.00,10.00 6.00,13.20 8.22,13.64 9.00,14.20 9.56,14.98 9.89,15.98">
        <request index="0" response="0000" foes="0100" cont="0"/>
        <request index="1" response="0000" foes="1100" cont="0"/>
        <request index="2" response="0011" foes="0011" cont="0"/>
        <request index="3" response="0010" foes="0010" cont="1"/>
    </junction>
    <junction id="gneJ3" type="priority" x="-10.00" y="10.00" incLanes="gneE9_0 gneE2_0" intLanes=":gneJ3_0_0 :gneJ3_1_0 :gneJ3_2_0 :gneJ3_4_0" shape="-13.20,17.20 -10.00,17.20 -9.56,14.98 -9.00,14.20 -8.22,13.64 -7.22,13.31 -6.00,13.20 -6.00,10.00 -8.22,9.56 -9.00,9.00 -9.56,8.22 -9.89,7.22 -10.00,6.00 -13.20,6.00 -13.64,8.22 -14.20,9.00 -14.98,9.56 -15.98,9.89 -17.20,10.00 -17.20,13.20 -14.98,13.64 -14.20,14.20 -13.64,14.98 -13.31,15.98">
        <request index="0" response="0000" foes="0100" cont="0"/>
        <request index="1" response="0000" foes="1100" cont="0"/>
        <request index="2" response="0011" foes="0011" cont="0"/>
        <request index="3" response="0010" foes="0010" cont="1"/>
    </junction>
    <junction id="gneJ4" type="dead_end" x="-26.00" y="-10.00" incLanes="" intLanes="" shape="-26.00,-10.00 -26.00,-13.20"/>
    <junction id="gneJ5" type="dead_end" x="26.00" y="-10.00" incLanes="gneE5_0" intLanes="" shape="26.00,-13.20 26.00,-10.00"/>
    <junction id="gneJ6" type="dead_end" x="26.00" y="10.00" incLanes="" intLanes="" shape="26.00,10.00 26.00,13.20"/>
    <junction id="gneJ7" type="dead_end" x="-26.00" y="10.00" incLanes="gneE7_0" intLanes="" shape="-26.00,13.20 -26.00,10.00"/>
    <junction id="gneJ8" type="dead_end" x="10.00" y="-26.00" incLanes="" intLanes="" shape="10.00,-26.00 13.20,-26.00"/>
    <junction id="gneJ9" type="dead_end" x="-10.00" y="26.00" incLanes="" intLanes="" shape="-10.00,26.00 -13.20,26.00"/>

    <junction id=":gneJ0_4_0" type="internal" x="-10.32" y="-10.00" incLanes=":gneJ0_1_0 gneE4_0" intLanes=":gneJ0_3_0"/>
    <junction id=":gneJ1_4_0" type="internal" x="10.00" y="-10.32" incLanes=":gneJ1_3_0 gneE8_0" intLanes=":gneJ1_1_0"/>
    <junction id=":gneJ2_4_0" type="internal" x="10.32" y="10.00" incLanes=":gneJ2_3_0 gneE6_0" intLanes=":gneJ2_1_0"/>
    <junction id=":gneJ3_4_0" type="internal" x="-10.00" y="10.32" incLanes=":gneJ3_3_0 gneE9_0" intLanes=":gneJ3_1_0"/>

    <connection from="gneE0" to="gneE5" fromLane="0" toLane="0" via=":gneJ1_2_0" dir="s" state="m"/>
    <connection from="gneE0" to="gneE1" fromLane="0" toLane="0" via=":gneJ1_3_0" dir="l" state="m"/>
    <connection from="gneE1" to="gneE10" fromLane="0" toLane="0" via=":gneJ2_2_0" dir="s" state="m"/>
    <connection from="gneE1" to="gneE2" fromLane="0" toLane="0" via=":gneJ2_3_0" dir="l" state="m"/>
    <connection from="gneE2" to="gneE7" fromLane="0" toLane="0" via=":gneJ3_2_0" dir="s" state="m"/>
    <connection from="gneE2" to="gneE3" fromLane="0" toLane="0" via=":gneJ3_3_0" dir="l" state="m"/>
    <connection from="gneE3" to="gneE11" fromLane="0" toLane="0" via=":gneJ0_0_0" dir="s" state="m"/>
    <connection from="gneE3" to="gneE0" fromLane="0" toLane="0" via=":gneJ0_1_0" dir="l" state="m"/>
    <connection from="gneE4" to="gneE11" fromLane="0" toLane="0" via=":gneJ0_2_0" dir="r" state="M"/>
    <connection from="gneE4" to="gneE0" fromLane="0" toLane="0" via=":gneJ0_3_0" dir="s" state="M"/>
    <connection from="gneE6" to="gneE10" fromLane="0" toLane="0" via=":gneJ2_0_0" dir="r" state="M"/>
    <connection from="gneE6" to="gneE2" fromLane="0" toLane="0" via=":gneJ2_1_0" dir="s" state="M"/>
    <connection from="gneE8" to="gneE5" fromLane="0" toLane="0" via=":gneJ1_0_0" dir="r" state="M"/>
    <connection from="gneE8" to="gneE1" fromLane="0" toLane="0" via=":gneJ1_1_0" dir="s" state="M"/>
    <connection from="gneE9" to="gneE7" fromLane="0" toLane="0" via=":gneJ3_0_0" dir="r" state="M"/>
    <connection from="gneE9" to="gneE3" fromLane="0" toLane="0" via=":gneJ3_1_0" dir="s" state="M"/>

    <connection from=":gneJ0_0" to="gneE11" fromLane="0" toLane="0" dir="s" state="M"/>
    <connection from=":gneJ0_1" to="gneE0" fromLane="0" toLane="0" via=":gneJ0_4_0" dir="l" state="m"/>
    <connection from=":gneJ0_4" to="gneE0" fromLane="0" toLane="0" dir="l" state="M"/>
    <connection from=":gneJ0_2" to="gneE11" fromLane="0" toLane="0" dir="r" state="M"/>
    <connection from=":gneJ0_3" to="gneE0" fromLane="0" toLane="0" dir="s" state="M"/>
    <connection from=":gneJ1_0" to="gneE5" fromLane="0" toLane="0" dir="r" state="M"/>
    <connection from=":gneJ1_1" to="gneE1" fromLane="0" toLane="0" dir="s" state="M"/>
    <connection from=":gneJ1_2" to="gneE5" fromLane="0" toLane="0" dir="s" state="M"/>
    <connection from=":gneJ1_3" to="gneE1" fromLane="0" toLane="0" via=":gneJ1_4_0" dir="l" state="m"/>
    <connection from=":gneJ1_4" to="gneE1" fromLane="0" toLane="0" dir="l" state="M"/>
    <connection from=":gneJ2_0" to="gneE10" fromLane="0" toLane="0" dir="r" state="M"/>
    <connection from=":gneJ2_1" to="gneE2" fromLane="0" toLane="0" dir="s" state="M"/>
    <connection from=":gneJ2_2" to="gneE10" fromLane="0" toLane="0" dir="s" state="M"/>
    <connection from=":gneJ2_3" to="gneE2" fromLane="0" toLane="0" via=":gneJ2_4_0" dir="l" state="m"/>
    <connection from=":gneJ2_4" to="gneE2" fromLane="0" toLane="0" dir="l" state="M"/>
    <connection from=":gneJ3_0" to="gneE7" fromLane="0" toLane="0" dir="r" state="M"/>
    <connection from=":gneJ3_1" to="gneE3" fromLane="0" toLane="0" dir="s" state="M"/>
    <connection from=":gneJ3_2" to="gneE7" fromLane="0" toLane="0" dir="s" state="M"/>
    <connection from=":gneJ3_3" to="gneE3" fromLane="0" toLane="0" via=":gneJ3_4_0" dir="l" state="m"/>
    <connection from=":gneJ3_4" to="gneE3" fromLane="0" toLane="0" dir="l" state="M"/>

</net>
