<?xml version="1.0" encoding="UTF-8"?>

<!-- generated on Monday 30 November 2020 10:57:00 AM IST by Eclipse SUMO GUI Version v1_7_0+1351-8ecdf9e25a
-->

<configuration xmlns:xsi="http://www.w3.org/2001/XMLSchema-instance" xsi:noNamespaceSchemaLocation="http://sumo.dlr.de/xsd/sumoConfiguration.xsd">

    <input>
        <net-file value="intersection_new.net.xml"/>
        <route-files value="intersection_new.rou.xml"/>
    </input>

</configuration>
